Circuit: * C:\Users\mptsi\Documents\LTspice\Analog VLSI Design\Cascode (CS-CG) amplifier.asc

Direct Newton iteration for .op point succeeded.

SPICE directive ".backanno" has no meaning for netlists.
vin: PP(v(vin))=0.0199749 FROM 0 TO 0.003
vout: PP(v(vout2))=0.0550454 FROM 0 TO 0.003
gain: vout/vin=2.75573
gaindb: 20*log10(gain)=8.80474


Date: Sun Oct 29 16:23:36 2023
Total elapsed time: 0.515 seconds.

tnom = 27
temp = 27
method = modified trap
totiter = 2091
traniter = 2085
tranpoints = 1042
accept = 1042
rejected = 0
matrix size = 11
fillins = 0
solver = Normal
Avg thread counts: 1.6/2.2/2.2/1.6
Matrix Compiler1: 708 bytes object code size  0.6/0.5/[0.3]
Matrix Compiler2: 869 bytes object code size  0.3/0.6/[0.3]

